@<TRIPOS>MOLECULE
Aniline
 14 14 0 0 0
SMALL
GASTEIGER

@<TRIPOS>ATOM
      1 H           1.5205   -0.1372    2.5286 H       1  LIG1        0.0618
      2 C           0.9575   -0.0905    1.5914 C.ar    1  LIG1       -0.0616
      3 C          -0.4298   -0.1902    1.6060 C.ar    1  LIG1       -0.0600
      4 H          -0.9578   -0.3156    2.5570 H       1  LIG1        0.0618
      5 C          -1.1520   -0.1316    0.4215 C.ar    1  LIG1       -0.0410
      6 H          -2.2452   -0.2104    0.4492 H       1  LIG1        0.0636
      7 C          -0.4779    0.0324   -0.7969 C.ar    1  LIG1        0.0245
      8 N          -1.2191    0.2008   -2.0081 N.pl3   1  LIG1       -0.3580
      9 H          -2.0974   -0.2669   -1.9681 H       1  LIG1        0.1423
     10 H          -0.6944   -0.0913   -2.8025 H       1  LIG1        0.1423
     11 C           0.9208    0.1292   -0.8109 C.ar    1  LIG1       -0.0410
     12 H           1.4628    0.2560   -1.7555 H       1  LIG1        0.0636
     13 C           1.6275    0.0685    0.3828 C.ar    1  LIG1       -0.0600
     14 H           2.7196    0.1470    0.3709 H       1  LIG1        0.0618
@<TRIPOS>BOND
     1    10     8    1
     2     8     9    1
     3     8     7    1
     4    12    11    1
     5    11     7   ar
     6    11    13   ar
     7     7     5   ar
     8    14    13    1
     9    13     2   ar
    10     5     6    1
    11     5     3   ar
    12     2     3   ar
    13     2     1    1
    14     3     4    1
