@<TRIPOS>MOLECULE
Caffein.xyz
 24 25 0 0 0
SMALL
GASTEIGER

@<TRIPOS>ATOM
      1 N           1.5808    0.7027   -0.2279 N.ar    1  LIG1       -0.2622
      2 C           1.7062   -0.7374   -0.2126 C.ar    1  LIG1        0.3331
      3 N           0.5340   -1.5671   -0.3503 N.ar    1  LIG1       -0.2796
      4 C           0.3231    1.3600    0.0274 C.ar    1  LIG1        0.2822
      5 C          -0.8123    0.4553    0.0817 C.ar    1  LIG1        0.1512
      6 C          -0.6967   -0.9322   -0.0662 C.ar    1  LIG1        0.1678
      7 N          -2.1886    0.6990    0.2783 N.ar    1  LIG1       -0.3277
      8 C          -2.8512   -0.5205    0.2532 C.ar    1  LIG1        0.0986
      9 N          -1.9537   -1.5188    0.0426 N.ar    1  LIG1       -0.2177
     10 C           0.6568   -3.0274   -0.1675 C.3     1  LIG1        0.0181
     11 O           2.8136   -1.2558   -0.1693 O.2     1  LIG1       -0.2462
     12 O           0.2849    2.5744    0.1591 O.2     1  LIG1       -0.2652
     13 C          -2.8096    2.0031    0.5032 C.3     1  LIG1        0.0135
     14 C           2.8301    1.5004   -0.1968 C.3     1  LIG1        0.0196
     15 H          -3.9271   -0.6787    0.3762 H       1  LIG1        0.1029
     16 H           1.4823   -3.4046   -0.7865 H       1  LIG1        0.0458
     17 H          -0.2708   -3.5204   -0.4868 H       1  LIG1        0.0458
     18 H           0.8567   -3.2990    0.8788 H       1  LIG1        0.0458
     19 H          -2.4123    2.7478   -0.2017 H       1  LIG1        0.0456
     20 H          -2.6042    2.3621    1.5221 H       1  LIG1        0.0456
     21 H          -3.8973    1.9344    0.3695 H       1  LIG1        0.0456
     22 H           3.5959    1.0333   -0.8314 H       1  LIG1        0.0458
     23 H           3.2249    1.5791    0.8255 H       1  LIG1        0.0458
     24 H           2.6431    2.5130   -0.5793 H       1  LIG1        0.0458
@<TRIPOS>BOND
     1    22    14    1
     2    16    10    1
     3    24    14    1
     4    17    10    1
     5     3     2   ar
     6     3    10    1
     7     3     6   ar
     8     1     2   ar
     9     1    14    1
    10     1     4   ar
    11     2    11    2
    12    19    13    1
    13    14    23    1
    14    10    18    1
    15     6     9   ar
    16     6     5   ar
    17     4     5   ar
    18     4    12    2
    19     9     8   ar
    20     5     7   ar
    21     8     7   ar
    22     8    15    1
    23     7    13    1
    24    21    13    1
    25    13    20    1
