@<TRIPOS>MOLECULE
Ethanol
 9 8 0 0 0
SMALL
GASTEIGER

@<TRIPOS>ATOM
      1 H           1.8853   -0.0401    1.0854 H       1  LIG1        0.0252
      2 C           1.2699   -0.0477    0.1772 C.3     1  LIG1       -0.0418
      3 H           1.5840    0.8007   -0.4449 H       1  LIG1        0.0252
      4 H           1.5089   -0.9636   -0.3791 H       1  LIG1        0.0252
      5 C          -0.2033    0.0282    0.5345 C.3     1  LIG1        0.0414
      6 H          -0.4993   -0.8287    1.1714 H       1  LIG1        0.0554
      7 H          -0.4235    0.9513    1.1064 H       1  LIG1        0.0554
      8 O          -0.9394    0.0157   -0.6674 O.3     1  LIG1       -0.3953
      9 H          -1.8540    0.0626   -0.4252 H       1  LIG1        0.2094
@<TRIPOS>BOND
     1     8     9    1
     2     8     5    1
     3     3     2    1
     4     4     2    1
     5     2     5    1
     6     2     1    1
     7     5     7    1
     8     5     6    1
