@<TRIPOS>MOLECULE
*****
 67 67 0 0 0
SMALL
GASTEIGER

@<TRIPOS>ATOM
      1 P          -2.2569   -0.3641    0.1587 P.3     2  LIG22      -0.0077
      2 P           2.2213   -0.4795    0.0798 P.3     2  LIG22      -0.0077
      3 N           0.0313    1.3748   -0.1177 N.ar    2  LIG22      -0.2173
      4 C          -1.1034    2.0934    0.0371 C.ar    2  LIG22       0.1241
      5 C          -1.0941    3.4897   -0.0295 C.ar    2  LIG22      -0.0215
      6 H          -2.0143    4.0430    0.0849 H       2  LIG22       0.0652
      7 C           0.1167    4.1296   -0.2315 C.ar    2  LIG22      -0.0553
      8 H           0.1493    5.2096   -0.2831 H       2  LIG22       0.0620
      9 C           1.2885    3.4016   -0.3571 C.ar    2  LIG22      -0.0215
     10 H           2.2429    3.8862   -0.4984 H       2  LIG22       0.0652
     11 C           1.2131    2.0089   -0.2877 C.ar    2  LIG22       0.1241
     12 N          -2.2428    1.3814    0.2754 N.pl3   2  LIG22      -0.3066
     13 H          -3.0966    1.9153    0.2941 H       2  LIG22       0.1522
     14 C          -3.3210   -0.6279   -1.4129 C.3     2  LIG22      -0.0009
     15 C          -2.7229    0.2747   -2.4930 C.3     2  LIG22      -0.0547
     16 H          -2.8981    1.3266   -2.2796 H       2  LIG22       0.0239
     17 H          -1.6525    0.1268   -2.6033 H       2  LIG22       0.0239
     18 C          -4.7981   -0.2784   -1.2803 C.3     2  LIG22      -0.0547
     19 H          -4.9519    0.7440   -0.9402 H       2  LIG22       0.0239
     20 C          -3.1776   -2.0853   -1.8470 C.3     2  LIG22      -0.0547
     21 H          -3.7127   -2.2353   -2.7863 H       2  LIG22       0.0239
     22 H          -2.1364   -2.3510   -2.0053 H       2  LIG22       0.0239
     23 H          -3.5928   -2.7765   -1.1188 H       2  LIG22       0.0239
     24 C          -3.2761   -0.8044    1.7064 C.3     2  LIG22      -0.0009
     25 C          -4.4683    0.1163    1.9612 C.3     2  LIG22      -0.0547
     26 H          -4.9558   -0.1954    2.8864 H       2  LIG22       0.0239
     27 H          -4.1538    1.1486    2.1012 H       2  LIG22       0.0239
     28 H          -5.2157    0.0865    1.1791 H       2  LIG22       0.0239
     29 C          -3.7329   -2.2555    1.5909 C.3     2  LIG22      -0.0547
     30 H          -4.5085   -2.3892    0.8418 H       2  LIG22       0.0239
     31 H          -2.9007   -2.9142    1.3463 H       2  LIG22       0.0239
     32 H          -4.1439   -2.5808    2.5477 H       2  LIG22       0.0239
     33 C          -2.3430   -0.6799    2.9090 C.3     2  LIG22      -0.0547
     34 H          -1.5164   -1.3786    2.8479 H       2  LIG22       0.0239
     35 H          -1.9238    0.3213    2.9886 H       2  LIG22       0.0239
     36 H          -2.9144   -0.8840    3.8164 H       2  LIG22       0.0239
     37 N           2.3166    1.2073   -0.3970 N.pl3   2  LIG22      -0.3066
     38 H           3.1988    1.6946   -0.3846 H       2  LIG22       0.1522
     39 C           3.4159   -1.2475   -1.1895 C.3     2  LIG22      -0.0009
     40 C           4.6603   -0.4092   -1.4760 C.3     2  LIG22      -0.0547
     41 H           5.2698   -0.9321   -2.2148 H       2  LIG22       0.0239
     42 H           4.3996    0.5560   -1.9057 H       2  LIG22       0.0239
     43 H           5.2824   -0.2424   -0.6059 H       2  LIG22       0.0239
     44 C           2.6448   -1.3832   -2.5009 C.3     2  LIG22      -0.0547
     45 H           3.3264   -1.7422   -3.2734 H       2  LIG22       0.0239
     46 H           1.8297   -2.0937   -2.4141 H       2  LIG22       0.0239
     47 H           2.2342   -0.4305   -2.8301 H       2  LIG22       0.0239
     48 C           3.8038   -2.6439   -0.7118 C.3     2  LIG22      -0.0547
     49 H           4.4693   -2.6218    0.1463 H       2  LIG22       0.0239
     50 H           2.9248   -3.2312   -0.4492 H       2  LIG22       0.0239
     51 H           4.3241   -3.1671   -1.5154 H       2  LIG22       0.0239
     52 C           3.0466   -0.4439    1.8051 C.3     2  LIG22      -0.0009
     53 C           4.5486   -0.1882    1.8162 C.3     2  LIG22      -0.0547
     54 H           4.8807   -0.0987    2.8523 H       2  LIG22       0.0239
     55 H           5.1173   -0.9967    1.3673 H       2  LIG22       0.0239
     56 H           4.8110    0.7425    1.3164 H       2  LIG22       0.0239
     57 C           2.3731    0.6873    2.5834 C.3     2  LIG22      -0.0547
     58 H           1.2907    0.5981    2.5553 H       2  LIG22       0.0239
     59 H           2.6962    0.6383    3.6243 H       2  LIG22       0.0239
     60 C           2.7362   -1.7693    2.4962 C.3     2  LIG22      -0.0547
     61 H           1.6644   -1.9444    2.5216 H       2  LIG22       0.0239
     62 H           3.2068   -2.6149    2.0013 H       2  LIG22       0.0239
     63 H           3.1092   -1.7374    3.5216 H       2  LIG22       0.0239
     64 H          -3.1962    0.0432   -3.4481 H       2  LIG22       0.0239
     65 H          -5.2685   -0.3637   -2.2619 H       2  LIG22       0.0239
     66 H          -5.3281   -0.9510   -0.6128 H       2  LIG22       0.0239
     67 H           2.6494    1.6651    2.1952 H       2  LIG22       0.0239
@<TRIPOS>BOND
     1    64    15    1
     2    45    44    1
     3    47    44    1
     4    21    20    1
     5    17    15    1
     6    44    46    1
     7    44    39    1
     8    15    16    1
     9    15    14    1
    10    65    18    1
    11    41    40    1
    12    22    20    1
    13    42    40    1
    14    20    14    1
    15    20    23    1
    16    51    48    1
    17    40    39    1
    18    40    43    1
    19    14    18    1
    20    14     1    1
    21    18    19    1
    22    18    66    1
    23    39    48    1
    24    39     2    1
    25    48    50    1
    26    48    49    1
    27    10     9    1
    28    37    38    1
    29    37    11    1
    30    37     2    1
    31     9    11   ar
    32     9     7   ar
    33    11     3   ar
    34     8     7    1
    35     7     5   ar
    36     3     4   ar
    37     5     4   ar
    38     5     6    1
    39     4    12    1
    40     2    52    1
    41     1    12    1
    42     1    24    1
    43    12    13    1
    44    30    29    1
    45    28    25    1
    46    56    53    1
    47    31    29    1
    48    55    53    1
    49    29    24    1
    50    29    32    1
    51    24    25    1
    52    24    33    1
    53    52    53    1
    54    52    60    1
    55    52    57    1
    56    53    54    1
    57    25    27    1
    58    25    26    1
    59    62    60    1
    60    67    57    1
    61    60    61    1
    62    60    63    1
    63    58    57    1
    64    57    59    1
    65    34    33    1
    66    33    35    1
    67    33    36    1
