@<TRIPOS>MOLECULE
Coordinates from ORCA-job opt
 71 69 0 0 0
SMALL
GASTEIGER

@<TRIPOS>ATOM
      1 FE         -0.0216   -0.4559    0.1172 Fe      1  LIG1        0.0000
      2 H          -0.0319   -0.4005    1.5667 H       1  LIG1        0.0000
      3 P          -2.1843   -0.2303    0.1430 P.3     2  LIG2        0.0000
      4 P           2.1502   -0.3457    0.1946 P.3     2  LIG2        0.0000
      5 N           0.0319    1.4856   -0.0102 N.ar    2  LIG2        0.0000
      6 C          -1.1216    2.2152   -0.0287 C.ar    2  LIG2        0.0000
      7 C          -1.1107    3.6034   -0.1045 C.ar    2  LIG2        0.0000
      8 H          -2.0400    4.1520   -0.1253 H       2  LIG2        0.0000
      9 C           0.1081    4.2538   -0.1446 C.ar    2  LIG2        0.0000
     10 H           0.1378    5.3327   -0.2012 H       2  LIG2        0.0000
     11 C           1.2893    3.5372   -0.1066 C.ar    2  LIG2        0.0000
     12 H           2.2474    4.0338   -0.1290 H       2  LIG2        0.0000
     13 C           1.2239    2.1505   -0.0307 C.ar    2  LIG2        0.0000
     14 N          -2.2758    1.4932    0.0271 N.pl3   2  LIG2        0.0000
     15 H          -3.1398    2.0088    0.0192 H       2  LIG2        0.0000
     16 C          -3.0406   -0.7770   -1.4492 C.3     2  LIG2        0.0000
     17 C          -1.9906   -0.5072   -2.5299 C.3     2  LIG2        0.0000
     18 H          -1.7076    0.5428   -2.5738 H       2  LIG2        0.0000
     19 H          -1.0930   -1.1037   -2.3694 H       2  LIG2        0.0000
     20 C          -4.3046    0.0034   -1.7894 C.3     2  LIG2        0.0000
     21 H          -4.1068    1.0681   -1.8950 H       2  LIG2        0.0000
     22 C          -3.3285   -2.2728   -1.3864 C.3     2  LIG2        0.0000
     23 H          -3.6340   -2.6215   -2.3727 H       2  LIG2        0.0000
     24 H          -2.4493   -2.8469   -1.0976 H       2  LIG2        0.0000
     25 H          -4.1345   -2.5103   -0.6979 H       2  LIG2        0.0000
     26 C          -3.1631   -0.6269    1.7046 C.3     2  LIG2        0.0000
     27 C          -4.6634   -0.4063    1.5516 C.3     2  LIG2        0.0000
     28 H          -5.1428   -0.5531    2.5194 H       2  LIG2        0.0000
     29 H          -4.9064    0.6049    1.2289 H       2  LIG2        0.0000
     30 H          -5.1183   -1.1081    0.8593 H       2  LIG2        0.0000
     31 C          -2.8785   -2.0781    2.0896 C.3     2  LIG2        0.0000
     32 H          -3.2030   -2.7877    1.3344 H       2  LIG2        0.0000
     33 H          -1.8201   -2.2382    2.2788 H       2  LIG2        0.0000
     34 H          -3.4155   -2.3133    3.0080 H       2  LIG2        0.0000
     35 C          -2.6281    0.2927    2.8024 C.3     2  LIG2        0.0000
     36 H          -1.5510    0.2014    2.9182 H       2  LIG2        0.0000
     37 H          -2.8603    1.3375    2.6135 H       2  LIG2        0.0000
     38 H          -3.0907    0.0145    3.7488 H       2  LIG2        0.0000
     39 N           2.3367    1.3658    0.0229 N.pl3   2  LIG2        0.0000
     40 H           3.2269    1.8346    0.0333 H       2  LIG2        0.0000
     41 C           3.0425   -0.9919   -1.3390 C.3     2  LIG2        0.0000
     42 C           4.3547   -0.2820   -1.6516 C.3     2  LIG2        0.0000
     43 H           4.7620   -0.6882   -2.5778 H       2  LIG2        0.0000
     44 H           4.2084    0.7838   -1.8153 H       2  LIG2        0.0000
     45 H           5.1085   -0.4169   -0.8844 H       2  LIG2        0.0000
     46 C           2.0550   -0.7199   -2.4761 C.3     2  LIG2        0.0000
     47 H           2.4910   -1.0357   -3.4239 H       2  LIG2        0.0000
     48 H           1.1311   -1.2808   -2.3421 H       2  LIG2        0.0000
     49 H           1.8119    0.3374   -2.5637 H       2  LIG2        0.0000
     50 C           3.2581   -2.4954   -1.2071 C.3     2  LIG2        0.0000
     51 H           4.0231   -2.7418   -0.4763 H       2  LIG2        0.0000
     52 H           2.3418   -3.0172   -0.9348 H       2  LIG2        0.0000
     53 H           3.5868   -2.8964   -2.1656 H       2  LIG2        0.0000
     54 C           3.0467   -0.7373    1.8081 C.3     2  LIG2        0.0000
     55 C           4.5620   -0.6097    1.7088 C.3     2  LIG2        0.0000
     56 H           4.9940   -0.7487    2.6998 H       2  LIG2        0.0000
     57 H           5.0018   -1.3609    1.0601 H       2  LIG2        0.0000
     58 H           4.8765    0.3736    1.3626 H       2  LIG2        0.0000
     59 C           2.5276    0.2546    2.8492 C.3     2  LIG2        0.0000
     60 H           1.4433    0.2339    2.9246 H       2  LIG2        0.0000
     61 H           2.9352   -0.0143    3.8231 H       2  LIG2        0.0000
     62 C           2.6609   -2.1533    2.2333 C.3     2  LIG2        0.0000
     63 H           1.5880   -2.2433    2.3825 H       2  LIG2        0.0000
     64 H           2.9724   -2.9089    1.5183 H       2  LIG2        0.0000
     65 H           3.1459   -2.3840    3.1814 H       2  LIG2        0.0000
     66 H          -2.3898   -0.7806   -3.5066 H       2  LIG2        0.0000
     67 H          -0.0957   -1.8836    0.7249 H       1  LIG1        0.0000
     68 H          -4.6828   -0.3421   -2.7519 H       2  LIG2        0.0000
     69 H          -5.0998   -0.1335   -1.0654 H       2  LIG2        0.0000
     70 H           2.8318    1.2753    2.6325 H       2  LIG2        0.0000
     71 H          -0.0291   -2.0227   -0.1472 H       3  UNK3        0.0000
@<TRIPOS>BOND
     1    66    17    1
     2    47    46    1
     3    68    20    1
     4    43    42    1
     5    18    17    1
     6    49    46    1
     7    17    19    1
     8    17    16    1
     9    46    48    1
    10    46    41    1
    11    23    22    1
    12    53    50    1
    13    21    20    1
    14    44    42    1
    15    20    16    1
    16    20    69    1
    17    42    41    1
    18    42    45    1
    19    16    22    1
    20    16     3    1
    21    22    24    1
    22    22    25    1
    23    41    50    1
    24    41     4    1
    25    50    52    1
    26    50    51    1
    27    10     9    1
    28     9    11   ar
    29     9     7   ar
    30    12    11    1
    31     8     7    1
    32    11    13   ar
    33     7     6   ar
    34    13     5   ar
    35    13    39    1
    36     6     5   ar
    37     6    14    1
    38    15    14    1
    39    39    40    1
    40    39     4    1
    41    14     3    1
    42     1    67    1
    43     1     2    1
    44     3    26    1
    45     4    54    1
    46    30    27    1
    47    57    55    1
    48    29    27    1
    49    32    31    1
    50    58    55    1
    51    64    62    1
    52    27    26    1
    53    27    28    1
    54    26    31    1
    55    26    35    1
    56    55    54    1
    57    55    56    1
    58    54    62    1
    59    54    59    1
    60    31    33    1
    61    31    34    1
    62    62    63    1
    63    62    65    1
    64    37    35    1
    65    70    59    1
    66    35    36    1
    67    35    38    1
    68    59    60    1
    69    59    61    1
#comment
