@<TRIPOS>MOLECULE
*****
 67 67 0 0 0
SMALL
GASTEIGER

@<TRIPOS>ATOM
      1 P          -2.2967   -0.3525    0.1348 P.3     2  LIG22      -0.0077
      2 P           2.2570   -0.4727    0.2180 P.3     2  LIG22      -0.0077
      3 N           0.0324    1.4832    0.0225 N.ar    2  LIG22      -0.2173
      4 C          -1.1395    2.1605   -0.0320 C.ar    2  LIG22       0.1241
      5 C          -1.1236    3.5576   -0.1265 C.ar    2  LIG22      -0.0215
      6 H          -2.0473    4.1199   -0.1712 H       2  LIG22       0.0652
      7 C           0.1090    4.2232   -0.1628 C.ar    2  LIG22      -0.0553
      8 H           0.1387    5.3027   -0.2358 H       2  LIG22       0.0620
      9 C           1.3018    3.4918   -0.1039 C.ar    2  LIG22      -0.0215
     10 H           2.2560    4.0034   -0.1300 H       2  LIG22       0.0652
     11 C           1.2420    2.0962   -0.0089 C.ar    2  LIG22       0.1241
     12 N          -2.3572    1.4369    0.0080 N.pl3   2  LIG22      -0.3066
     13 H          -3.2581    1.9333   -0.0145 H       2  LIG22       0.1522
     14 C          -3.2136   -0.8069   -1.4764 C.3     2  LIG22      -0.0009
     15 C          -2.1919   -0.6103   -2.6129 C.3     2  LIG22      -0.0547
     16 H          -1.8630    0.4504   -2.6666 H       2  LIG22       0.0239
     17 H          -1.2919   -1.2406   -2.4454 H       2  LIG22       0.0239
     18 C          -4.4428    0.0720   -1.7987 C.3     2  LIG22      -0.0547
     19 H          -4.1637    1.1391   -1.9056 H       2  LIG22       0.0239
     20 C          -3.6262   -2.2857   -1.4450 C.3     2  LIG22      -0.0547
     21 H          -4.0557   -2.5937   -2.4227 H       2  LIG22       0.0239
     22 H          -2.7483   -2.9334   -1.2314 H       2  LIG22       0.0239
     23 H          -4.4029   -2.4627   -0.6779 H       2  LIG22       0.0239
     24 C          -3.3284   -0.6130    1.7135 C.3     2  LIG22      -0.0009
     25 C          -4.8072   -0.2305    1.5722 C.3     2  LIG22      -0.0547
     26 H          -5.3278   -0.3438    2.5477 H       2  LIG22       0.0239
     27 H          -4.9225    0.8225    1.2435 H       2  LIG22       0.0239
     28 H          -5.3212   -0.9139    0.8713 H       2  LIG22       0.0239
     29 C          -3.2180   -2.0907    2.1336 C.3     2  LIG22      -0.0547
     30 H          -3.6514   -2.7695    1.3769 H       2  LIG22       0.0239
     31 H          -2.1522   -2.3751    2.2742 H       2  LIG22       0.0239
     32 H          -3.7517   -2.2691    3.0921 H       2  LIG22       0.0239
     33 C          -2.6950    0.2429    2.8288 C.3     2  LIG22      -0.0547
     34 H          -1.6231   -0.0190    2.9661 H       2  LIG22       0.0239
     35 H          -2.7591    1.3247    2.5872 H       2  LIG22       0.0239
     36 H          -3.2175    0.0825    3.7968 H       2  LIG22       0.0239
     37 N           2.4161    1.3081    0.0604 N.pl3   2  LIG22      -0.3066
     38 H           3.3433    1.7556    0.0565 H       2  LIG22       0.1522
     39 C           3.2036   -1.0128   -1.3491 C.3     2  LIG22      -0.0009
     40 C           4.4853   -0.2039   -1.6484 C.3     2  LIG22      -0.0547
     41 H           4.9458   -0.5622   -2.5946 H       2  LIG22       0.0239
     42 H           4.2630    0.8724   -1.7908 H       2  LIG22       0.0239
     43 H           5.2568   -0.3026   -0.8721 H       2  LIG22       0.0239
     44 C           2.2323   -0.7962   -2.5253 C.3     2  LIG22      -0.0547
     45 H           2.6882   -1.1198   -3.4862 H       2  LIG22       0.0239
     46 H           1.2972   -1.3780   -2.3746 H       2  LIG22       0.0239
     47 H           1.9582    0.2774   -2.6161 H       2  LIG22       0.0239
     48 C           3.5407   -2.5090   -1.2676 C.3     2  LIG22      -0.0547
     49 H           4.2811   -2.7042   -0.4698 H       2  LIG22       0.0239
     50 H           2.6250   -3.1073   -1.0694 H       2  LIG22       0.0239
     51 H           3.9874   -2.8629   -2.2218 H       2  LIG22       0.0239
     52 C           3.2193   -0.7489    1.8374 C.3     2  LIG22      -0.0009
     53 C           4.7202   -0.4468    1.7399 C.3     2  LIG22      -0.0547
     54 H           5.2005   -0.5638    2.7354 H       2  LIG22       0.0239
     55 H           5.2215   -1.1716    1.0723 H       2  LIG22       0.0239
     56 H           4.9017    0.5909    1.3930 H       2  LIG22       0.0239
     57 C           2.5942    0.1653    2.9104 C.3     2  LIG22      -0.0547
     58 H           1.5058   -0.0367    3.0150 H       2  LIG22       0.0239
     59 H           3.0737    0.0010    3.8997 H       2  LIG22       0.0239
     60 C           3.0166   -2.2083    2.2860 C.3     2  LIG22      -0.0547
     61 H           1.9331   -2.4330    2.3952 H       2  LIG22       0.0239
     62 H           3.4390   -2.9269    1.5607 H       2  LIG22       0.0239
     63 H           3.5068   -2.3907    3.2668 H       2  LIG22       0.0239
     64 H          -2.6286   -0.8873   -3.5969 H       2  LIG22       0.0239
     65 H          -4.8861   -0.2399   -2.7692 H       2  LIG22       0.0239
     66 H          -5.2457   -0.0070   -1.0527 H       2  LIG22       0.0239
     67 H           2.7240    1.2363    2.6481 H       2  LIG22       0.0239
@<TRIPOS>BOND
     1    64    15    1
     2    45    44    1
     3    65    18    1
     4    41    40    1
     5    16    15    1
     6    47    44    1
     7    15    17    1
     8    15    14    1
     9    44    46    1
    10    44    39    1
    11    21    20    1
    12    51    48    1
    13    19    18    1
    14    42    40    1
    15    18    14    1
    16    18    66    1
    17    40    39    1
    18    40    43    1
    19    14    20    1
    20    14     1    1
    21    20    22    1
    22    20    23    1
    23    39    48    1
    24    39     2    1
    25    48    50    1
    26    48    49    1
    27     8     7    1
    28     7     9   ar
    29     7     5   ar
    30    10     9    1
    31     6     5    1
    32     9    11   ar
    33     5     4   ar
    34    11     3   ar
    35    11    37    1
    36     4     3   ar
    37     4    12    1
    38    13    12    1
    39    37    38    1
    40    37     2    1
    41    12     1    1
    42     1    24    1
    43     2    52    1
    44    28    25    1
    45    55    53    1
    46    27    25    1
    47    30    29    1
    48    56    53    1
    49    62    60    1
    50    25    24    1
    51    25    26    1
    52    24    29    1
    53    24    33    1
    54    53    52    1
    55    53    54    1
    56    52    60    1
    57    52    57    1
    58    29    31    1
    59    29    32    1
    60    60    61    1
    61    60    63    1
    62    35    33    1
    63    67    57    1
    64    33    34    1
    65    33    36    1
    66    57    58    1
    67    57    59    1
