@<TRIPOS>MOLECULE
Water.xyz
 3 2 0 0 0
SMALL
GASTEIGER

@<TRIPOS>ATOM
      1 H           0.5080   -0.0515    0.7596 H       0  HOH0        0.2052
      2 O           0.0248    0.0050   -0.0574 O.3     1  HOH1       -0.4105
      3 H          -0.9021   -0.0284    0.1521 H       0  HOH0        0.2052
@<TRIPOS>BOND
     1     2     3    1
     2     2     1    1
